eclipse/jetty.project                                         Eclipse Jetty® - Web Container & Clients - supports HTTP/2, HTTP/1.1, HTTP/1...  public            34m
eclipse/lyo                                                   Eclipse Lyo, a Java SDK for OSLC-based tool integration                          public            46m
eclipse/gef-classic                                           Eclipse GEF(tm) Classic code                                                     public            1h
eclipse/omr                                                   Eclipse OMR™ Cross platform components for building reliable, high performan...  public            1h
eclipse/microprofile-metrics                                  microprofile-metrics                                                             public            1h
eclipse/paho.mqtt.embedded-c                                  Paho MQTT C client library for embedded systems. Paho is an Eclipse IoT proj...  public            1h
eclipse/lemminx-maven                                         lemminx-maven                                                                    public            1h
eclipse/org.eclipse.sensinact.gateway                                                                                                          public            2h
eclipse/jetty.toolchain                                       Eclipse Jetty® - Servlet Engine and Http Server project repository (jetty.to...  public            2h
eclipse/sumo                                                  Eclipse SUMO is an open source, highly portable, microscopic and continuous ...  public            3h
eclipse/dirigible                                             Eclipse Dirigible™ Project                                                       public            3h
eclipse/kura                                                  Eclipse Kura™ project                                                            public            3h
eclipse/jkube                                                 Build and Deploy java applications on Kubernetes                                 public            4h
eclipse/epsilon-website                                                                                                                        public            6h
eclipse/epsilon                                               Epsilon is a family of Java-based scripting languages for automating common ...  public            6h
eclipse/eclipse-collections                                   Eclipse Collections is a collections framework for Java with optimized data ...  public            6h
eclipse/lsp4jakarta                                           Language Server for Jakarta EE                                                   public            6h
eclipse/mosaic                                                Eclipse MOSAIC is a Multi-Domain and Multi-Scale Simulation Framework for Au...  public            7h
eclipse/kiso-testing                                                                                                                           public            7h
eclipse/n4js                                                                                                                                   public            8h
eclipse/elk                                                   Eclipse Layout Kernel - Automatic layout for Java applications.                  public            8h
eclipse/che                                                   The Kubernetes-Native IDE for Developer Teams                                    public            11h
eclipse/lsp4e                                                 Language Server Protocol support in Eclipse IDE                                  public            11h
eclipse/efbt                                                  efbt                                                                             public            12h
eclipse/dash-licenses                                         Extract license information from content.                                        public            23h
eclipse/tm4e                                                  TextMate support in Eclipse IDE                                                  public            23h
eclipse/tahu                                                  Eclipse Tahu addresses the existence of legacy SCADA/DCS/ICS protocols and i...  public            1d
eclipse/chemclipse                                            ChemClipse Project                                                               public            1d
eclipse/eclipse-collections-kata                              Eclipse Collections Katas                                                        public            1d
eclipse/kuksa.val                                             kuksa.val                                                                        public            2d
eclipse/keyple-website                                        Eclipse Keyple™ Project: https://keyple.org/ website                             public            2d
eclipse/steady                                                Analyses your Java applications for open-source dependencies with known vuln...  public            2d
eclipse/keyple                                                Eclipse Keyple™ Project: raw repository to handle issue: global for the proj...  public            2d
eclipse/mosquitto                                             Eclipse Mosquitto - An open source MQTT broker                                   public            2d
eclipse/microprofile-graphql                                  microprofile-graphql                                                             public            2d
eclipse/jetty-website                                         Contents and release generation for display on https://eclipse.dev/jetty         public            3d
eclipse/microprofile-telemetry                                microprofile telemetry                                                           public            3d
eclipse/capella-website                                       Website for Capella                                                              public            3d
eclipse/cloe                                                  Cloe                                                                             public            3d
eclipse/adore                                                 Adore project                                                                    public            3d
eclipse/microprofile-open-api                                 Microprofile open api                                                            public            3d
eclipse/capella-pipeline-library                              capella-pipeline-library                                                         public            3d
eclipse/microprofile-config                                   MicroProfile Configuration Feature                                               public            3d
eclipse/kapua                                                                                                                                  public            3d
eclipse/jnosql                                                Eclipse JNoSQL is a framework which has the goal to help Java developers to ...  public            3d
eclipse/emf.egf                                                                                                                                public            3d
eclipse/paho.mqtt.golang                                                                                                                       public            3d
eclipse/packages                                              IoT Packages project                                                             public            4d
eclipse/lemminx                                               XML Language Server                                                              public            4d
eclipse/microprofile-parent                                                                                                                    public            4d
eclipse/capella                                               Open Source Solution for Model-Based Systems Engineering                         public            4d
eclipse/agileuml                                              AgileUML tools for MDE using UML                                                 public            4d
eclipse/kuksa.val.services                                    Repository for Vehicle Service Related implementations for Eclipse SDV           public            4d
eclipse/transformer                                           Eclipse Transformer provides tools and runtime components that transform Jav...  public            4d
eclipse/jetty.docker                                          jetty docker                                                                     public            4d
eclipse/mwe                                                   Modeling Workflow Engine project repository (mwe)                                public            4d
eclipse/paho.mqtt.rust                                        paho.mqtt.rust                                                                   public            4d
eclipse/paho.golang                                           Go libraries                                                                     public            4d
eclipse/capella-basic-vp                                                                                                                       public            5d
eclipse/jifa                                                  Eclipse Jifa                                                                     public            5d
eclipse/jnosql-extensions                                     This project contains all specialization to Eclipse JNoSQL. The specific beh...  public            5d
eclipse/jnosql-databases                                      This project contains Eclipse JNoSQL databases                                   public            5d
eclipse/wakaama                                               Eclipse Wakaama is a C implementation of the Open Mobile Alliance's LightWei...  public            5d
eclipse/xtext                                                 Eclipse Xtext™ is a language development framework                               public            5d
eclipse/capella-studio                                        Open source SDK to develop Capella add-ons                                       public            5d
eclipse/openvsx                                               An open-source registry for VS Code extensions                                   public            6d
eclipse/lsp4mp                                                Technology lsp4mp                                                                public            6d
eclipse/mosaic.website                                                                                                                         public            6d
eclipse/paho.mqtt.android                                     MQTT Android                                                                     public            6d
eclipse/tinydtls                                              Eclipse tinydtls                                                                 public            7d
eclipse/emfatic-website                                                                                                                        public            7d
eclipse/gmf-runtime                                           Eclipse GMF Runtime                                                              public            7d
eclipse/elk-website                                                                                                                            public            7d
eclipse/ConfigJSR                                             JSR382                                                                           public            8d
eclipse/gemoc-studio                                          gemoc-studio                                                                     public            10d
eclipse/emf-validation                                        EMF Validation extends the core validation support of EMF                        public            10d
eclipse/swtchart                                                                                                                               public            10d
eclipse/buildship                                             The Eclipse Plug-ins for Gradle project.                                         public            10d
eclipse/hawkbit                                               Eclipse hawkBit™                                                                 public            10d
eclipse/org.eclipse.rcptt                                                                                                                      public            10d
eclipse/microprofile-reactive-streams-operators               Microprofile project                                                             public            11d
eclipse/amlen                                                 Message Broker for IoT/Mobile/Web. Mainly uses MQTT v3.x and v5. Aims to be ...  public            11d
eclipse/mraa                                                  Linux Library for low speed IO Communication in C with bindings for C++, Pyt...  public            11d
eclipse/paho.mqtt-sn.embedded-c                               Paho C MQTT-SN gateway and libraries for embedded systems. Paho is an Eclips...  public            12d
eclipse/xacc                                                  XACC - eXtreme-scale Accelerator programming framework                           public            12d
eclipse/reddeer                                               RedDeer Project                                                                  public            13d
eclipse/gemoc-studio-modeldebugging                           gemoc-studio-modeldebugging                                                      public            13d
eclipse/hawkbit-extensions                                                                                                                     public            13d
eclipse/paho.mqtt.cpp                                                                                                                          public            14d
eclipse/kuksa.val.feeders                                     kuksa.val.feeders                                                                public            14d
eclipse/microprofile-starter                                  MicroProfile project generator source code                                       public            14d
eclipse/xtext-website                                                                                                                          public            14d
eclipse/Xpect                                                 This repository has been rewritten to move to the Eclipse Foundation. Find t...  public            14d
eclipse/editdor                                               Eclipse ediTDor - A tool for simply designing W3C Thing Descriptions             public            14d
eclipse/sisu.plexus                                           Sisu Plexus                                                                      public            14d
eclipse/hawkbit-website                                                                                                                        public            14d
eclipse/efbt-website                                                                                                                           public            15d
eclipse/ecf                                                   ECF project repository                                                           public            16d
eclipse/openmcx                                               openmcx                                                                          public            17d
eclipse/keyple-util-java-lib                                  Eclipse Keyple™ Project: utility library for all users                           public            18d
eclipse/milo                                                  Eclipse Milo™ - an open source implementation of OPC UA (IEC 62541).             public            20d
eclipse/paho.mqtt.c                                           An Eclipse Paho C client library for MQTT for Windows, Linux and MacOS. API ...  public            21d
eclipse/packager                                              Eclipse Packager project                                                         public            24d
eclipse/capella-sss-transition                                System to Sub System transition add-on enables automated and iterative trans...  public            25d
eclipse/microprofile-build-infra                                                                                                               public            25d
eclipse/kitalpha                                                                                                                               public            25d
eclipse/kura-website                                                                                                                           public            25d
eclipse/lyo.designer                                          lyo.designer                                                                     public            25d
eclipse/microprofile-samples                                  Micro Profile Samples                                                            public            25d
eclipse/microprofile-bom                                                                                                                       public            25d
eclipse/microprofile-evolution-process                        For the evolution of new ideas                                                   public            25d
eclipse/microprofile-service-mesh                                                                                                              public            25d
eclipse/microprofile-service-mesh-service-a                   microprofile-service-mesh-service-a                                              public            25d
eclipse/microprofile-service-mesh-service-b                   microprofile-service-mesh-service-b                                              public            25d
eclipse/microprofile-opentracing                              microprofile-opentracing                                                         public            25d
eclipse/microprofile-health                                   microprofile-health                                                              public            25d
eclipse/microprofile-conference                               Microprofile.io Demo Code - Web Services Conference Application                  public            25d
eclipse/microprofile-marketing                                                                                                                 public            25d
eclipse/microprofile-lra                                      microprofile-lra                                                                 public            25d
eclipse/microprofile-reactive-messaging                                                                                                        public            25d
eclipse/microprofile-context-propagation                                                                                                       public            25d
eclipse/microprofile-fault-tolerance                          microprofile fault tolerance                                                     public            25d
eclipse/microprofile-jwt-auth                                                                                                                  public            25d
eclipse/microprofile                                          Repository for important documentation - the index to the project / community    public            25d
eclipse/microprofile-rest-client                              MicroProfile Rest Client                                                         public            25d
eclipse/microprofile-sandbox                                                                                                                   public            25d
eclipse/keyple-card-calypso-java-lib                          Eclipse Keyple™ Project: Calypso card extension lib for end users                public            27d
eclipse/capella-xhtml-docgen                                  XHTML Documentation Generation AddOn provides output HTML files for Capella ...  public            27d
eclipse/capella-filtering                                     Filtering is an addon to filter capella models                                   public            27d
eclipse/hawkbit-examples                                                                                                                       public            28d
eclipse/emf-transaction                                       EMF Transaction provides transactional semantics for (local) EMF model changes   public            Jul 14, 2023
eclipse/gmf-notation                                          GMF notation repository                                                          public            Jul 14, 2023
eclipse/xtext-website-publish                                 xtext-website-publish                                                            public            Jul 13, 2023
eclipse/paho.mqtt.python                                      paho.mqtt.python                                                                 public            Jul 11, 2023
eclipse/winery                                                Eclipse Winery project                                                           public            Jul  8, 2023
eclipse/jemo                                                  Jemo project source code                                                         public            Jul  8, 2023
eclipse/gemoc-studio-execution-moccml                         gemoc-studio-execution-moccml                                                    public            Jul  7, 2023
eclipse/keti                                                  Eclipse Keti is a service that was designed to protect RESTfuls API using At...  public            Jul  6, 2023
eclipse/gemoc-studio-commons                                                                                                                   public            Jul  5, 2023
eclipse/gemoc-studio-moccml                                   gemoc-studio-moccml                                                              public            Jul  5, 2023
eclipse/gemoc-studio-execution-java                           Gemoc studio execution java                                                      public            Jul  5, 2023
eclipse/gemoc-studio-execution-ale                            Gemoc studio execution ale                                                       public            Jul  5, 2023
eclipse/keyple-card-calypso-crypto-legacysam-java-lib         Eclipse Keyple™ Project: Calypso legacy SAM extension lib for end users          public            Jul  3, 2023
eclipse/sumo.website                                                                                                                           public            Jul  3, 2023
eclipse/keyple-card-generic-java-lib                          Eclipse Keyple™ Project: add-on library to operate generic smartcard solutio...  public            Jun 30, 2023
eclipse/nattable-website                                                                                                                       public            Jun 30, 2023
eclipse/keyple-service-java-lib                               Eclipse Keyple™ Project - Java implementation: main service API for end users    public            Jun 30, 2023
eclipse/keyple-service-resource-java-lib                      Eclipse Keyple™ Project: add-on library to define a profile-based card resou...  public            Jun 30, 2023
eclipse/org.eclipse.rap.incubator.e4.compatibility.workbench  rap incubator e4 compatibility workbench                                         public            Jun 28, 2023
eclipse/packages-website                                                                                                                       public            Jun 26, 2023
eclipse/keyple-service-cpp-lib                                Eclipse Keyple™ Project - C++ implementation: main service API for end users     public            Jun 22, 2023
eclipse/keyple-util-cpp-lib                                   keyple-util-cpp-lib                                                              public            Jun 22, 2023
eclipse/keyple-service-resource-cpp-lib                       keyple-service-resource-cpp-lib                                                  public            Jun 22, 2023
eclipse/keyple-plugin-stub-cpp-lib                            keyple-plugin-stub-cpp-lib                                                       public            Jun 22, 2023
eclipse/keyple-plugin-pcsc-cpp-lib                            keyple-plugin-pcsc-cpp-lib                                                       public            Jun 22, 2023
eclipse/keyple-plugin-cpp-api                                 Eclipse Keyple™ Project - C++ implementation: API for plugin developers          public            Jun 22, 2023
eclipse/repairnator                                           Software development bots for Github. Join the bot revolution! :star2::robot...  public            Jun 22, 2023
eclipse/org.eclipse.emf.diffmerge.core                                                                                                         public            Jun 22, 2023
eclipse/keyple-card-calypso-cpp-lib                           keyple-card-calypso-cpp-lib                                                      public            Jun 22, 2023
eclipse/keyple-card-generic-cpp-lib                           keyple-card-generic-cpp-lib                                                      public            Jun 22, 2023
eclipse/keyple-common-cpp-api                                 keyple-common-cpp-api                                                            public            Jun 22, 2023
eclipse/lyo.oslc-ui                                                                                                                            public            Jun 21, 2023
eclipse/lyo.testsuite                                         Lyo project repository (lyo.testsuite)                                           public            Jun 21, 2023
eclipse/keyple-cpp-meta                                       keyple-cpp-meta                                                                  public            Jun 19, 2023
eclipse/keyple-plugin-pcsc-java-lib                           Eclipse Keyple™ Project: PC/SC plugin lib for end users                          public            Jun 16, 2023
eclipse/mat-website                                                                                                                            public            Jun 15, 2023
eclipse/collections-website                                                                                                                    public            Jun 14, 2023
eclipse/shellwax                                                                                                                               public            Jun 12, 2023
eclipse/aCute                                                 Eclipse aCute - C# edition in Eclipse IDE                                        public            Jun  7, 2023
eclipse/eclemma                                               :waning_crescent_moon:　Java Code Coverage for Eclipse IDE                       public            Jun  7, 2023
eclipse/keyple-distributed-remote-java-lib                    Eclipse Keyple™ Project: distributed remote plugin API for end users             public            Jun  6, 2023
eclipse/keyple-plugin-stub-java-lib                           Eclipse Keyple™ Project: stub plugin API for end users                           public            Jun  6, 2023
eclipse/keyple-plugin-android-omapi-java-lib                  Eclipse Keyple™ Project: Android OMAPI plugin API for end users                  public            Jun  6, 2023
eclipse/keyple-plugin-android-nfc-java-lib                    Eclipse Keyple™ Project: Android NFC plugin library for end users                public            Jun  6, 2023
eclipse/keyple-plugin-cardresource-java-lib                   Eclipse Keyple™ Project: Card Resource plugin lib for end users                  public            Jun  6, 2023
eclipse/keyple-plugin-java-api                                Eclipse Keyple™ Project - Java implementation: API for plugin developers         public            Jun  6, 2023
eclipse/keyple-distributed-network-java-lib                   Eclipse Keyple™ Project: distributed network API for end users                   public            Jun  6, 2023
eclipse/keyple-distributed-local-java-lib                     Eclipse Keyple™ Project: distributed local service API for end users             public            Jun  6, 2023
eclipse/keyple-distributed-local-java-api                     Eclipse Keyple™ Project: API for distributed local service developers            public            Jun  6, 2023